scripts/data/matpower/EMT/emt_ponta_seco.m
%% MATPOWER Case Format : Version 2
function mpc = emt_ponta_seco
mpc.version = '2';

%%-----  Power Flow Data  -----%%
%% system MVA base
mpc.baseMVA = 100.0;
%% bus data
%    bus_i    type    Pd    Qd    Gs    Bs    area    Vm    Va    baseKV    zone    Vmax    Vmin
mpc.bus = [
	10	2	32.0	15.49	0.0	0.0	251	0.989	-24.000000000000004	992.0	1	1.05	0.95				
	11	2	65.0	31.5	0.0	0.0	251	0.971	-24.000000000000004	992.0	1	1.05	0.95				
	12	2	0.0	0.0	0.0	0.0	204	0.971	-24.000000000000004	992.0	1	1.05	0.95				
	13	2	0.0	0.0	0.0	0.0	204	0.972	-28.0	990.0	1	1.05	0.95				
	14	2	1.14	0.0	0.0	0.0	255	0.989	-33.0	992.0	1	1.05	0.95				
	16	2	0.0	0.0	0.0	0.0	352	0.974	-28.0	992.0	1	1.05	0.95				
	17	2	0.0	0.0	0.0	0.0	352	0.967	-34.0	990.0	1	1.05	0.95				
	18	2	0.0	0.0	0.0	0.0	351	0.961	-13.0	992.0	1	1.05	0.95				
	19	2	0.0	0.0	0.0	0.0	351	0.975	-21.0	990.0	1	1.05	0.95				
	20	2	0.0	0.0	0.0	0.0	351	1.003	-11.0	992.0	1	1.05	0.95				
	21	2	0.0	0.0	0.0	0.0	472	0.979	-4.1	992.0	1	1.05	0.95				
	22	2	1.8000000000000003	0.0	0.0	0.0	352	0.998	-24.000000000000004	992.0	1	1.05	0.95				
	24	2	1.2	0.0	0.0	0.0	208	0.966	-25.0	992.0	1	1.05	0.95				
	28	2	1.55	0.0	0.0	0.0	208	0.989	-22.0	992.0	1	1.05	0.95				
	30	2	0.0	0.0	0.0	0.0	254	1.002	-41.0	992.0	1	1.05	0.95				
	31	2	0.0	0.0	0.0	0.0	254	0.959	-41.0	992.0	1	1.05	0.95				
	32	2	0.0	0.0	0.0	0.0	254	1.004	-34.0	992.0	1	1.05	0.95				
	35	2	0.0	0.0	0.0	0.0	512	0.971	-18.0	992.0	1	1.05	0.95				
	36	2	0.0	0.0	0.0	0.0	511	0.956	-22.0	992.0	1	1.05	0.95				
	37	2	0.0	0.0	0.0	0.0	511	0.955	-35.0	990.0	1	1.05	0.95				
	38	2	0.0	0.0	0.0	0.0	251	1.004	-43.0	13.8	1	1.05	0.95				
	41	2	0.0	0.0	0.0	0.0	302	1.002	-58.00000000000001	990.0	1	1.05	0.95				
	42	4	0.0	0.0	0.0	0.0	512	1.01	-32.0	345.0	1	1.05	0.95				
	43	4	0.0	0.0	0.0	0.0	512	1.01	-32.0	345.0	1	1.05	0.95				
	44	2	0.0	0.0	0.0	0.0	251	1.004	-43.0	13.8	1	1.05	0.95				
	46	1	0.0	0.0	0.0	-4.09	252	1.017	-51.0	345.0	1	1.05	0.95				
	47	4	0.0	0.0	0.0	0.0	302	1.003	-85.0	990.0	1	1.05	0.95				
	48	2	0.0	0.0	0.0	0.0	204	1.012	-23.0	20.0	1	1.05	0.95				
	50	2	0.0	0.0	0.0	0.0	201	0.988	-31.0	20.0	1	1.05	0.95				
	52	1	0.0	0.0	0.0	0.0	252	1.02	-51.0	345.0	1	1.05	0.95				
	53	2	0.0	0.0	0.0	0.0	252	1.02	-51.0	20.0	1	1.05	0.95				
	54	2	0.0	0.0	0.0	0.0	252	1.02	-51.0	20.0	1	1.05	0.95				
	55	1	0.0	0.0	0.0	-1.28	513	1.0	-48.00000000000001	230.0	1	1.05	0.95				
	56	1	0.0	0.0	0.0	-180.0	201	0.956	-6.4	69.0	1	1.05	0.95				
	57	1	0.0	0.0	0.0	0.0	201	1.012	-6.3	69.0	1	1.05	0.95				
	58	1	0.0	0.0	0.0	0.0	201	1.012	-6.3	991.0	1	1.9	0.4				
	59	1	0.0	0.0	0.0	0.0	201	1.014	-6.4	991.0	1	1.9	0.4				
	60	1	0.0	0.0	0.0	-990.0	201	0.979	3.4800000000000004	765.0	1	1.046	0.9				
	61	1	0.0	0.0	0.0	0.0	101	1.023	6.720000000000001	500.0	1	1.1	1.0				
	62	1	0.0	0.0	0.0	-150.0	201	1.017	-14.0	765.0	1	1.046	0.9				
	63	1	0.0	0.0	0.0	-150.0	201	1.017	-14.0	765.0	1	1.046	0.9				
	64	1	0.0	0.0	0.0	-150.0	201	1.014	-14.0	765.0	1	1.046	0.9				
	65	1	0.0	0.0	0.0	-330.0	201	1.009	-7.400000000000001	765.0	1	1.046	0.9				
	66	1	0.0	0.0	0.0	0.0	101	1.02	-6.5	525.0	1	1.048	0.95				
	67	1	0.24	0.0	0.0	0.0	201	1.012	-6.3	69.0	1	1.05	0.95				
	68	1	0.0	0.0	0.0	0.0	201	1.012	-6.3	991.0	1	1.9	0.4				
	69	1	0.0	0.0	0.0	-330.0	201	1.013	0.493	765.0	1	1.046	0.9				
	70	1	0.0	0.0	0.0	-330.0	201	1.013	0.493	765.0	1	1.046	0.9				
	71	1	0.0	0.0	0.0	-330.0	201	1.013	0.39000000000000007	765.0	1	1.046	0.9				
	72	1	0.0	0.0	0.0	-1650.0	201	1.005	-14.999999999999998	765.0	1	1.046	0.9				
	73	1	0.0	0.0	0.0	0.0	201	0.98	-5.5	765.0	1	1.046	0.9				
	74	1	0.0	0.0	0.0	0.0	201	0.98	-5.5	765.0	1	1.046	0.9				
	75	1	0.0	0.0	0.0	0.0	201	0.976	-5.9	765.0	1	1.046	0.9				
	76	1	0.0	0.0	0.0	-990.0	201	0.968	-25.0	765.0	1	1.046	0.9				
	77	1	0.0	0.0	0.0	0.0	202	1.009	-27.0	500.0	1	1.1	1.0				
	78	1	0.0	0.0	0.0	0.0	204	1.008	-29.999999999999996	345.0	1	1.05	0.95				
	79	1	0.0	0.0	0.0	-180.0	201	0.929	-27.0	69.0	1	1.9	0.4				
	80	1	0.0	0.0	0.0	0.0	201	0.988	-27.0	991.0	1	1.9	0.4				
	81	1	0.0	0.0	0.0	0.0	201	0.968	-31.0	991.0	1	1.9	0.4				
	82	1	0.0	0.0	0.0	0.0	204	1.007	-29.999999999999996	345.0	1	1.05	0.95				
	84	1	0.0	0.0	0.0	0.0	255	1.009	-37.0	138.0	1	1.05	0.95				
	85	1	60.0	0.0	0.0	1540.0	241	1.024	-9.0	500.0	1	1.1	1.0				
	86	1	0.0	0.0	0.0	2024.4	204	1.005	-23.0	345.0	1	1.05	0.95				
	87	1	0.0	0.0	0.0	0.0	251	1.048	-34.0	500.0	1	1.1	1.0				
	90	1	0.0	0.0	0.0	-60.0	302	1.0	-58.00000000000001	345.0	1	1.05	0.95				
	91	1	0.0	0.0	0.0	0.0	302	0.997	-61.0	13.8	1	1.9	0.4				
	92	1	0.0	0.0	0.0	-73.0	511	1.033	-35.0	500.0	1	1.1	1.0				
	93	1	0.0	0.0	0.0	-136.0	511	1.049	-35.0	500.0	1	1.1	1.0				
	94	1	0.0	0.0	0.0	-136.0	511	1.049	-35.0	500.0	1	1.1	1.0				
	95	1	0.0	0.0	0.0	0.0	302	0.997	-61.0	13.8	1	1.9	0.4				
	96	1	0.0	0.0	0.0	0.0	302	0.997	-61.0	13.8	1	1.9	0.4				
	99	1	0.0	0.0	0.0	-90.7	202	1.055	-12.000000000000002	500.0	1	1.1	1.0				
	100	1	0.0	0.0	0.0	-200.0	351	1.047	-17.0	500.0	1	1.1	1.0				
	101	1	0.0	0.0	0.0	-365.47	202	1.05	-20.0	500.0	1	1.1	1.0				
	102	1	0.0	0.0	0.0	-136.0	351	1.048	-27.0	500.0	1	1.1	1.0				
	103	1	0.0	0.0	0.0	-112.4	202	1.04	-25.0	500.0	1	1.1	1.0				
	104	1	0.0	0.0	0.0	-752.0	202	1.052	-32.0	500.0	1	1.1	1.0				
	105	1	0.0	0.0	0.0	-136.0	251	1.047	-31.0	500.0	1	1.1	1.0				
	106	1	0.0	0.0	0.0	-136.0	251	1.04	-38.0	500.0	1	1.1	1.0				
	107	1	0.0	0.0	0.0	0.0	251	1.043	-40.0	500.0	1	1.1	1.0				
	108	1	0.0	0.0	0.0	0.0	251	1.036	-38.0	500.0	1	1.1	1.0				
	109	1	0.0	0.0	0.0	0.0	251	1.04	-38.0	500.0	1	1.1	1.0				
	110	1	0.0	0.0	0.0	0.0	251	1.005	-43.0	991.0	1	1.9	0.4				
	112	1	0.0	0.0	0.0	-136.0	101	1.091	-14.0	500.0	1	1.1	1.0				
	113	1	0.0	0.0	0.0	-136.0	101	1.091	-14.0	500.0	1	1.1	1.0				
	114	1	0.0	0.0	0.0	0.0	101	1.091	-14.0	500.0	1	1.1	1.0				
	115	1	0.0	0.0	0.0	-81.6	202	1.038	-5.4	500.0	1	1.1	1.0				
	116	1	0.0	0.0	0.0	0.0	256	1.017	-47.0	138.0	1	1.05	0.95				
	118	1	0.0	0.0	0.0	0.0	512	0.97	-32.0	991.0	1	1.9	0.4				
	119	1	0.0	0.0	0.0	0.0	512	0.97	-32.0	13.8	1	1.9	0.4				
	120	1	0.0	0.0	0.0	0.0	352	1.016	-32.0	345.0	1	1.05	0.95				
	121	1	0.0	0.0	0.0	0.0	351	0.99	-33.0	991.0	1	1.9	0.4				
	122	1	0.0	0.0	0.0	-180.0	202	1.064	-21.0	500.0	1	1.1	1.0				
	123	1	0.0	0.0	0.0	100.0	204	0.999	-29.999999999999996	345.0	1	1.05	0.95				
	124	1	0.0	0.0	0.0	0.0	202	0.978	-31.0	991.0	1	1.9	0.4				
	125	1	0.0	0.0	0.0	-87.0	202	1.014	-28.0	500.0	1	1.1	1.0				
	126	1	0.0	0.0	0.0	100.0	204	0.991	-33.0	345.0	1	1.05	0.95				
	127	1	0.0	0.0	0.0	0.0	204	1.004	-32.0	345.0	1	1.05	0.95				
	128	1	0.0	0.0	0.0	0.0	204	1.004	-32.0	345.0	1	1.05	0.95				
	129	1	0.0	0.0	0.0	0.0	204	1.003	-33.0	345.0	1	1.05	0.95				
	130	1	0.0	0.0	0.0	-87.0	202	1.014	-28.0	500.0	1	1.1	1.0				
	131	1	0.0	0.0	0.0	0.0	352	1.023	-29.999999999999996	345.0	1	1.05	0.95				
	133	1	0.0	0.0	0.0	0.0	252	0.999	-45.0	991.0	1	1.9	0.4				
	134	1	0.0	0.0	0.0	0.0	204	1.009	-28.0	345.0	1	1.05	0.95				
	135	1	0.0	0.0	0.0	0.0	252	0.984	-45.0	991.0	1	1.9	0.4				
	136	1	0.0	0.0	0.0	0.0	352	1.005	-34.0	345.0	1	1.05	0.95				
	137	1	0.0	0.0	0.0	0.0	252	0.984	-45.0	991.0	1	1.9	0.4				
	138	1	0.0	0.0	0.0	-160.0	352	0.999	-46.0	345.0	1	1.05	0.95				
	139	1	0.0	0.0	0.0	0.0	251	0.991	-42.0	991.0	1	1.9	0.4				
	140	1	0.0	0.0	0.0	162.5	252	1.013	-42.0	345.0	1	1.05	0.95				
	141	1	0.0	0.0	0.0	0.0	251	0.995	-44.0	991.0	1	1.9	0.4				
	142	1	0.0	0.0	0.0	0.0	251	0.997	-43.0	991.0	1	1.9	0.4				
	143	1	0.0	0.0	0.0	0.0	252	0.999	-45.0	991.0	1	1.9	0.4				
	144	1	0.0	0.0	0.0	0.0	252	1.003	-43.0	345.0	1	1.05	0.95				
	145	1	0.0	0.0	0.0	0.0	252	0.999	-45.0	991.0	1	1.9	0.4				
	146	1	0.0	0.0	0.0	0.0	252	0.999	-45.0	991.0	1	1.9	0.4				
	147	1	0.0	0.0	0.0	59.998000000000005	252	1.018	-51.0	345.0	1	1.05	0.95				
	148	1	0.0	0.0	0.0	0.0	252	1.014	-53.0	991.0	1	1.9	0.4				
	149	1	0.0	0.0	0.0	-120.0	302	0.996	-58.00000000000001	345.0	1	1.05	0.95				
	150	1	0.0	0.0	0.0	0.0	302	0.953	-67.0	991.0	1	1.9	0.4				
	152	1	0.0	0.0	0.0	0.0	302	0.997	-58.00000000000001	991.0	1	1.9	0.4				
	153	1	0.0	0.0	0.0	0.0	302	0.997	-58.00000000000001	991.0	1	1.9	0.4				
	154	1	0.0	0.0	0.0	10.0	302	1.014	-58.00000000000001	13.8	1	1.9	0.4				
	155	1	0.0	0.0	0.0	10.0	302	1.014	-58.00000000000001	13.8	1	1.9	0.4				
	156	1	0.0	0.0	0.0	10.0	302	1.011	-58.00000000000001	13.8	1	1.9	0.4				
	158	1	0.0	0.0	0.0	0.0	302	0.997	-58.00000000000001	991.0	1	1.9	0.4				
	159	1	0.0	0.0	0.0	0.0	252	0.984	-45.0	13.8	1	1.9	0.4				
	160	1	0.0	0.0	0.0	0.0	252	0.984	-45.0	13.8	1	1.9	0.4				
	161	1	0.0	0.0	0.0	0.0	205	1.001	-33.0	230.0	1	1.05	0.95				
	162	1	0.0	0.0	0.0	0.0	207	0.971	-32.0	991.0	1	1.9	0.4				
	163	1	0.0	0.0	0.0	-25.0	207	0.942	-32.0	13.8	1	1.9	0.4				
	164	1	0.0	0.0	0.0	0.0	352	1.012	-34.0	991.0	1	1.9	0.4				
	165	1	0.0	0.0	0.0	-50.0	352	0.95	-34.0	13.8	1	1.9	0.4				
	166	1	0.0	0.0	0.0	0.0	252	0.984	-45.0	991.0	1	1.9	0.4				
	167	1	0.0	0.0	0.0	0.0	252	0.984	-45.0	13.8	1	1.9	0.4				
	169	1	0.0	0.0	0.0	250.0	254	1.015	-41.0	138.0	1	1.05	0.95				
	170	1	0.0	0.0	0.0	0.0	359	1.028	-33.0	138.0	1	1.05	0.95				
	171	1	1.01	0.0	0.0	0.0	207	1.011	-33.0	138.0	1	1.05	0.95				
	172	1	0.0	0.0	0.0	0.0	256	0.999	-43.0	138.0	1	1.05	0.95				
	173	1	0.0	0.0	0.0	0.0	256	1.028	-45.0	138.0	1	1.05	0.95				
	174	1	0.0	0.0	0.0	75.0	258	1.023	-50.0	138.0	1	1.05	0.95				
	175	1	0.25	0.0	0.0	50.0	259	1.017	-53.0	138.0	1	1.05	0.95				
	176	1	0.0	0.0	0.0	0.0	202	0.975	-31.0	991.0	1	1.9	0.4				
	177	1	0.0	0.0	0.0	0.0	304	1.002	-66.0	138.0	1	1.05	0.95				
	178	1	0.0	0.0	0.0	0.0	254	0.999	-43.0	138.0	1	1.05	0.95				
	179	1	0.0	0.0	0.0	0.0	251	1.005	-43.0	991.0	1	1.9	0.4				
	180	1	0.0	0.0	0.0	100.0	254	1.003	-45.0	138.0	1	1.05	0.95				
	181	1	0.0	0.0	0.0	0.0	255	1.007	-38.0	138.0	1	1.05	0.95				
	182	1	0.0	0.0	0.0	0.0	255	1.004	-37.0	138.0	1	1.05	0.95				
	183	1	0.0	0.0	0.0	0.0	214	1.023	-34.0	138.0	1	1.05	0.95				
	184	1	0.0	0.0	0.0	0.0	254	1.002	-41.0	138.0	1	1.05	0.95				
	185	1	3.0	1.45	0.0	0.0	255	1.008	-29.999999999999996	138.0	1	1.05	0.95				
	186	1	0.0	0.0	0.0	0.0	202	0.975	-31.0	13.8	1	1.9	0.4				
	187	1	0.0	0.0	0.0	0.0	358	1.018	-29.999999999999996	138.0	1	1.05	0.95				
	189	1	0.0	0.0	0.0	0.0	563	1.052	-42.0	991.0	1	1.9	0.4				
	190	1	0.0	0.0	0.0	0.0	208	0.997	-27.0	138.0	1	1.05	0.95				
	192	1	0.0	0.0	0.0	0.0	252	1.014	-53.0	13.8	1	1.9	0.4				
	194	1	0.0	0.0	0.0	-50.0	251	0.914	-43.0	13.8	1	1.9	0.4				
	195	1	0.0	0.0	0.0	0.0	251	0.995	-44.0	13.8	1	1.9	0.4				
	196	1	0.0	0.0	0.0	-50.0	202	0.897	-31.0	13.8	1	1.9	0.4				
	197	1	0.0	0.0	0.0	-50.0	251	0.909	-42.0	13.8	1	1.9	0.4				
	198	1	0.0	0.0	0.0	-50.0	351	0.908	-33.0	13.8	1	1.9	0.4				
	199	1	0.0	0.0	0.0	10.0	302	0.968	-67.0	13.8	1	1.9	0.4				
	200	1	0.0	0.0	0.0	0.0	259	1.034	-56.0	991.0	1	1.9	0.4				
	201	2	1.16	0.0	0.0	0.0	259	1.034	-56.0	992.0	1	1.05	0.95				
	202	1	0.0	0.0	0.0	0.0	259	1.034	-56.0	991.0	1	1.9	0.4				
	203	1	1.16	0.0	0.0	0.0	259	1.034	-56.0	992.0	1	1.05	0.95				
	204	1	0.0	0.0	0.0	0.0	252	0.999	-45.0	13.8	1	1.9	0.4				
	205	1	0.0	0.0	0.0	0.0	252	0.999	-45.0	13.8	1	1.9	0.4				
	206	1	0.0	0.0	0.0	0.0	252	0.999	-45.0	13.8	1	1.9	0.4				
	208	1	0.0	0.0	0.0	0.0	563	1.052	-42.0	13.8	1	1.9	0.4				
	209	1	0.0	0.0	0.0	0.0	252	0.999	-45.0	13.8	1	1.9	0.4				
	210	1	0.0	0.0	0.0	-342.0	351	1.042	-21.0	500.0	1	1.1	1.0				
	211	1	0.0	0.0	0.0	0.0	252	1.014	-53.0	991.0	1	1.9	0.4				
	212	1	0.0	0.0	0.0	0.0	252	1.014	-53.0	13.8	1	1.9	0.4				
	213	1	0.0	0.0	0.0	0.0	352	1.018	-19.0	345.0	1	1.05	0.95				
	214	1	0.0	0.0	0.0	0.0	351	1.019	-19.0	991.0	1	1.9	0.4				
	216	1	0.0	0.0	0.0	0.0	352	1.011	-21.0	345.0	1	1.05	0.95				
	217	1	0.0	0.0	0.0	-96.0	352	0.999	-23.0	345.0	1	1.05	0.95				
	218	1	0.0	0.0	0.0	-60.0	512	0.988	-31.0	345.0	1	1.05	0.95				
	219	1	0.0	0.0	0.0	-60.0	562	1.019	-36.0	345.0	1	1.05	0.95				
	220	1	0.0	0.0	0.0	0.0	512	1.01	-24.000000000000004	345.0	1	1.05	0.95				
	221	1	0.0	0.0	0.0	0.0	564	1.051	-42.0	34.5	1	1.05	0.95				
	222	1	0.0	0.0	0.0	0.0	562	1.02	-38.0	991.0	1	1.9	0.4				
	223	1	0.0	0.0	0.0	0.0	512	0.969	-32.0	991.0	1	1.9	0.4				
	224	1	0.0	0.0	0.0	0.0	512	0.968	-32.0	991.0	1	1.9	0.4				
	225	1	0.0	0.0	0.0	0.0	353	1.024	-22.0	230.0	1	1.05	0.95				
	226	1	0.0	0.0	0.0	0.0	513	0.996	-32.0	230.0	1	1.05	0.95				
	227	1	0.0	0.0	0.0	0.0	563	1.02	-38.0	230.0	1	1.05	0.95				
	228	1	0.0	0.0	0.0	0.0	563	1.02	-37.0	230.0	1	1.05	0.95				
	229	1	0.0	0.0	0.0	0.0	513	1.001	-48.00000000000001	230.0	1	1.05	0.95				
	230	1	0.0	0.0	0.0	0.0	513	1.023	-36.0	230.0	1	1.05	0.95				
	231	1	0.0	0.0	0.0	-45.0	513	1.016	-21.0	230.0	1	1.05	0.95				
	232	1	0.0	0.0	0.0	0.0	562	1.02	-38.0	13.8	1	1.9	0.4				
	233	1	0.0	0.0	0.0	-283.0	561	1.059	-35.0	500.0	1	1.1	1.0				
	234	1	0.0	0.0	0.0	0.0	562	1.023	-35.0	345.0	1	1.05	0.95				
	235	1	0.0	0.0	0.0	-481.50000000000006	511	1.053	-35.0	500.0	1	1.1	1.0				
	236	1	0.8100000000000002	0.0	0.0	0.0	564	1.016	-39.0	138.0	1	1.05	0.95				
	237	1	0.0	0.0	0.0	0.0	564	0.997	-38.0	138.0	1	1.05	0.95				
	238	1	0.13	0.0	0.0	-15.0	517	0.995	-22.0	138.0	1	1.05	0.95				
...
];

%% generator data
%    bus    Pg    Qg    Qmax    Qmin    Vg    mBase    status    Pmax    Pmin    Pc1    Pc2    Qc1min    Qc1max    Qc2min    Qc2max    ramp_agc    ramp_10    ramp_30    ramp_q    apf
mpc.gen = [
	10251	5.5	0.0	0.0	0.0	1.008	100.0	0	99999.0	0.0															
	8989	0.0	-5.58	39.5	-39.5	1.0	100.0	1	99999.0	0.0															
	9682	120.0	14.85	90.0	-33.8	1.001	100.0	1	99999.0	0.0															
	1863	15.0	-1.05	8.6	-8.6	1.006	100.0	1	18.0	15.0															
	2631	5.3	0.0	0.0	0.0	0.997	100.0	0	99999.0	0.0															
	7064	852.0	-211.0	430.79999999999995	-430.0	0.973	100.0	1	865.0	821.0000000000001															
	3153	29.100000000000005	0.6	0.0	0.0	1.043	100.0	0	99999.0	0.0															
	17	0.0	-144.0	240.0	-480.0	0.967	100.0	1	0.0	0.0															
	6057	46.5	-2.42	37.2	-37.2	0.999	100.0	1	99999.0	0.0															
	4335	3.3000000000000003	0.0	0.0	0.0	1.014	100.0	0	99999.0	0.0															
	5805	0.0	-0.558	14.400000000000002	-14.400000000000002	0.997	100.0	1	99999.0	0.0															
	6423	0.0	-180.0	175.0	-280.0	0.959	100.0	1	0.0	0.0															
	14	133.0	-22.0	100.0	-100.0	0.989	100.0	1	199.0	133.0															
	1052	4.5	0.0	0.0	0.0	1.014	100.0	0	99999.0	0.0															
	4141	30.0	0.0	0.0	0.0	1.022	100.0	1	99999.0	0.0															
	510	877.9999999999999	-189.0	360.0	-360.0	0.975	100.0	1	1432.0	0.0															
	2166	15.8	0.0	0.0	0.0	0.984	100.0	0	23.0	15.8															
	3963	290.0	-34.8	180.0	-110.00000000000001	0.99	100.0	1	290.0	248.0															
	21	173.0	-6.24	84.0	-80.0	0.979	100.0	1	192.0	162.0															
	871	4.0	0.0	0.0	0.0	1.003	100.0	0	99999.0	0.0															
	6016	13.8	-2.27	7.6	-7.6	1.009	100.0	1	99999.0	0.0															
	6598	0.0	0.0374	5.2	-5.2	0.997	100.0	1	16.0	0.0															
	2276	0.0	0.0	0.0	0.0	0.998	100.0	1	13.8	0.0															
	8746	16.2	0.1874	9.0	-9.0	0.993	100.0	1	99999.0	0.0															
	751	65.0	6.543	50.0	-50.0	0.978	100.0	1	100.0	65.0															
	1070	811.9999999999999	80.85	281.2	-281.0	1.015	100.0	1	811.9999999999999	809.7000000000002															
	3749	12.0	-5.47	14.499999999999998	-14.499999999999998	0.988	100.0	1	12.0	10.8															
	8129	13.0	-3.54	14.3	-12.5	1.003	100.0	1	99999.0	0.0															
	7199	27.6	-1.91	26.8	-26.8	1.001	100.0	1	99999.0	0.0															
	1166	123.0	-18.2	63.0	-45.0	0.998	100.0	1	125.0	123.0															
	2863	181.0	30.78	88.3	-88.3	1.004	100.0	1	181.0	172.0															
	9126	30.0	0.0	0.0	0.0	1.021	100.0	1	99999.0	0.0															
	8376	102.90000000000002	-4.8	103.1	-81.3	0.995	100.0	1	99999.0	0.0															
	5051	180.0	-74.7	125.0	-120.0	1.001	100.0	1	499.0	180.0															
	6164	75.0	-2.43	49.2	-49.2	0.995	100.0	1	99999.0	0.0															
	8768	0.0	-7.15	36.3	-36.3	1.004	100.0	1	99999.0	0.0															
	3744	18.0	-2.54	10.32	-10.3	0.986	100.0	1	30.0	11.6															
	6129	30.0	-4.69	19.6	-19.6	1.003	100.0	1	99999.0	0.0															
	1704	0.2	0.1836	2.1	-1.4	1.017	100.0	1	10.4	0.2															
	9598	2.3	0.0	0.0	0.0	1.003	100.0	0	99999.0	0.0															
	6133	46.6	0.0	0.0	0.0	1.108	100.0	0	99999.0	0.0															
	8267	3.0	0.23809999999999998	2.0	-2.0	0.989	100.0	1	99999.0	0.0															
	7930	0.0	-30.5	66.5	-66.5	1.0	100.0	1	99999.0	0.0															
	10232	4.0	0.0	0.0	0.0	0.991	100.0	0	99999.0	0.0															
	1023	0.4	0.0	0.0	0.0	0.982	100.0	0	99999.0	0.0															
	3969	80.0	0.0	0.0	0.0	1.017	100.0	1	80.0	24.0															
	7916	0.0	-2.9	8.8	-15.299999999999999	1.0	100.0	1	99999.0	0.0															
	7932	0.0	-27.6	62.4	-62.4	1.001	100.0	1	99999.0	0.0															
	1566	11.2	0.0	0.0	0.0	1.02	100.0	0	99999.0	0.0															
	315	0.0	-4.41	30.0	-15.0	1.009	100.0	1	0.0	0.0															
	841	0.4	0.0	0.0	0.0	1.004	100.0	0	99999.0	0.0															
	4802	9.4	-3.11	8.1	-8.1	1.028	100.0	1	17.0	9.0															
	984	11.0	0.0615	4.0	-5.0	0.994	100.0	1	99999.0	0.0															
	8395	0.0	-9.22	82.8	-82.8	0.994	100.0	1	99999.0	0.0															
	9451	120.0	2.516	97.5	-97.5	0.995	100.0	1	120.0	38.0															
	9769	72.7	2.439	55.8	-55.8	0.998	100.0	1	74.4	72.7															
	3104	17.8	0.0	0.0	0.0	0.947	100.0	1	18.3	16.0															
	7246	41.1	-2.4	0.0	0.0	1.007	100.0	0	99999.0	0.0															
	1176	119.0	-6.09	52.0	-66.0	0.979	100.0	1	119.0	116.3															
	8727	75.6	-11.9	48.0	-48.0	1.003	100.0	1	99999.0	0.0															
	8911	0.0	0.0	0.0	0.0	1.0	100.0	1	99999.0	0.0															
	6589	49.1	0.0	0.0	0.0	1.006	100.0	1	49.1	25.6															
	10144	31.0	-2.09	28.499999999999996	-28.499999999999996	0.996	100.0	1	99999.0	0.0															
	2733	5.5	0.0	0.0	0.0	1.003	100.0	0	99999.0	0.0															
	5803	15.7	1.2	0.0	0.0	1.096	100.0	0	99999.0	0.0															
	9734	9.0	-1.4	-1.4	-1.4	1.024	100.0	1	99999.0	0.0															
	2918	9.5	0.6491	7.000000000000001	-7.000000000000001	0.999	100.0	1	12.7	2.9															
	4168	58.8	0.0	0.0	0.0	1.013	100.0	1	58.8	58.8															
	2917	2.5	-4.33	9.5	-9.5	1.019	100.0	1	9.0	2.0															
	4010	0.6	0.0	0.0	0.0	0.992	100.0	0	99999.0	0.0															
	44322	0.0	0.0	0.0	0.0	0.953	100.0	1	99999.0	0.0															
	1774	1.4	0.1766	0.9000000000000001	-0.6	0.983	100.0	1	13.200000000000001	1.4															
	8391	201.6	14.99	160.0	-119.0	1.003	100.0	1	99999.0	0.0															
	6073	106.89999999999999	-3.7000000000000006	122.09999999999998	-122.0	1.001	100.0	1	99999.0	0.0															
	1189	0.5	0.0	0.0	0.0	1.013	100.0	0	99999.0	0.0															
	7206	150.0	-49.3	56.99999999999999	-56.99999999999999	1.011	100.0	1	800.0	150.0															
	9768	79.8	0.7018	61.5	-61.5	0.997	100.0	1	82.0	79.8															
	6742	30.0	-5.14	19.6	-19.6	1.005	100.0	1	99999.0	0.0															
	44323	0.0	0.0	0.0	0.0	0.953	100.0	1	99999.0	0.0															
	1501	59.0	6.139	44.0	-44.0	0.973	100.0	1	91.0	59.0															
	4834	29.299999999999997	-2.12	12.8	-12.8	0.999	100.0	1	29.299999999999997	28.999999999999996															
	1594	70.0	8.328	37.2	-40.0	0.982	100.0	1	106.0	70.0															
	2601	5.7	6.446000000000001	15.2	-15.2	0.974	100.0	1	17.8	5.7															
	4061	16.0	0.0	0.0	0.0	0.993	100.0	0	27.699999999999996	16.0															
	6074	51.6	-0.05600000000000001	17.5	-25.1	0.998	100.0	1	99999.0	0.0															
	4157	28.6	0.0	0.0	0.0	1.024	100.0	1	28.6	28.6															
	7509	3.6000000000000005	0.1911	3.1	-2.1	1.017	100.0	1	99999.0	0.0															
	922	0.0	0.0	0.0	0.0	0.982	100.0	1	0.0	0.0															
	8607	32.4	-7.139999999999999	25.900000000000002	-25.900000000000002	1.001	100.0	1	99999.0	0.0															
	9784	22.0	-2.41	13.5	-8.2	1.004	100.0	1	99999.0	0.0															
	8015	13.5	-2.03	13.100000000000001	-13.100000000000001	1.003	100.0	1	99999.0	0.0															
	3197	1.2	0.0	0.0	0.0	1.023	100.0	0	1.5	1.2															
	10119	36.0	-33.4	48.0	-48.0	0.995	100.0	1	99999.0	0.0															
	8724	70.9	-23.5	45.6	-45.6	1.013	100.0	1	99999.0	0.0															
	8071	46.0	-8.4	37.0	-37.0	0.998	100.0	1	99999.0	0.0															
	5183	22.1	0.0	0.0	0.0	1.123	100.0	0	99999.0	0.0															
	5938	0.0	-3.2199999999999998	68.5	-68.5	1.0	100.0	1	99999.0	0.0															
	6492	15.5	0.0	0.0	0.0	0.99	100.0	0	99999.0	0.0															
	3525	64.0	7.396	47.4	-17.0	1.006	100.0	1	99999.0	0.0															
	8612	30.0	9.005	26.700000000000003	-19.3	0.996	100.0	1	99999.0	0.0															
	3803	12.0	0.0	0.0	0.0	1.006	100.0	0	99999.0	0.0															
	5744	36.6	-0.579	22.1	-22.1	1.0	100.0	1	99999.0	0.0															
	3465	13.8	0.0	0.0	0.0	0.981	100.0	0	21.0	13.8															
	8741	216.7	10.2	181.0	-138.0	1.002	100.0	1	99999.0	0.0															
	9582	130.0	14.12	97.5	-86.1	0.991	100.0	1	99999.0	0.0															
	4525	76.0	3.7360000000000007	47.6	-74.0	0.99	100.0	1	85.0	76.0															
	6711	27.6	-5.66	26.5	-26.5	0.999	100.0	1	99999.0	0.0															
	6372	69.9	-7.6	0.0	-26.5	0.973	100.0	1	99999.0	0.0															
	4073	1.2	0.0	0.0	0.0	0.994	100.0	0	2.1	1.2															
	9328	3.1	0.0	0.0	0.0	1.012	100.0	0	5.0	1.0															
	3524	64.0	7.396	47.4	-17.0	1.006	100.0	1	99999.0	0.0															
	8686	23.1	-0.624	15.2	-15.2	1.0	100.0	1	99999.0	0.0															
	1014	0.1	0.0	0.0	0.0	0.963	100.0	1	99999.0	0.0															
	4692	0.9000000000000001	-0.082	0.8	-0.8	1.007	100.0	1	99999.0	0.0															
	4520	141.0	-10.5	60.0	-57.9	0.999	100.0	1	156.0	132.0															
	5078	52.5	-12.3	34.5	-34.5	1.008	100.0	1	99999.0	0.0															
	9625	55.60000000000001	0.0	0.0	0.0	1.001	100.0	0	84.1	55.60000000000001															
	1528	23.4	0.0	0.0	0.0	0.993	100.0	0	29.799999999999997	23.4															
	2107	3.5000000000000004	0.0	0.0	0.0	1.008	100.0	0	3.5000000000000004	1.1															
	6347	0.0	-3.03	30.0	-15.0	1.017	100.0	1	0.0	0.0															
	8651	26.200000000000003	-3.63	23.2	-21.9	1.008	100.0	1	99999.0	0.0															
	2716	5.7	0.0	0.0	0.0	1.003	100.0	0	99999.0	0.0															
	2851	2.1	0.0	0.0	0.0	1.005	100.0	0	99999.0	0.0															
	4631	17.6	-2.36	10.2	-10.2	1.0	100.0	1	22.0	17.2															
	526	52.0	-16.8	52.0	-52.0	0.986	100.0	1	79.0	52.0															
	5593	5.0	0.0	0.0	0.0	1.072	100.0	0	99999.0	0.0															
	3839	36.0	0.0	0.0	0.0	1.012	100.0	0	36.0	17.0															
	5218	0.0	0.0	0.0	0.0	1.0	100.0	1	99999.0	0.0															
	6313	40.8	0.0	0.0	0.0	1.109	100.0	0	99999.0	0.0															
	4255	8.7	0.0	0.0	0.0	0.981	100.0	1	8.7	2.3															
	1707	0.1	-0.1	0.2	-0.1	1.006	100.0	1	99999.0	0.0															
	516	84.0	13.83	42.0	-42.0	1.003	100.0	1	129.0	84.0															
	6597	2.4	-0.353	7.200000000000001	-7.200000000000001	0.998	100.0	1	22.5	2.4															
	3162	0.9000000000000001	0.0	0.0	0.0	1.004	100.0	1	22.0	0.0															
	9558	2.1	0.6	0.0	0.0	1.051	100.0	0	99999.0	0.0															
	9455	50.0	0.0	0.0	0.0	0.99	100.0	1	80.0	0.0															
	9732	9.0	-1.4	-1.4	-1.4	1.025	100.0	1	99999.0	0.0															
	5653	20.9	0.0	0.0	0.0	1.114	100.0	0	65.2	20.9															
	3455	0.8	0.1	0.0	0.0	1.039	100.0	0	99999.0	0.0															
	3547	10.0	0.0	0.0	0.0	1.018	100.0	1	99999.0	0.0															
	5032	0.0	0.0	0.0	0.0	0.971	100.0	1	62.0	0.0															
	10157	8.0	-3.2	9.0	-9.0	0.998	100.0	1	99999.0	0.0															
	4827	9.2	0.0	0.0	0.0	0.973	100.0	1	10.3	0.0															
	4489	340.0	34.09	169.4	-136.0	0.994	100.0	1	99999.0	0.0															
	32	350.0	26.3	220.00000000000003	-180.0	1.004	100.0	1	350.0	0.0															
	1181	0.0	0.0	0.0	0.0	0.997	100.0	1	99999.0	0.0															
	8309	30.099999999999998	-1.69	19.9	-19.9	1.0	100.0	1	99999.0	0.0															
	8485	16.4	-1.39	11.9	-11.9	1.003	100.0	1	99999.0	0.0															
	340	0.5	0.0	0.0	0.0	1.004	100.0	0	99999.0	0.0															
	6342	96.0	19.5	0.0	0.0	1.012	100.0	0	99999.0	0.0															
	6618	18.9	-1.12	10.4	-10.4	1.002	100.0	1	99999.0	0.0															
	7340	2.1	0.0	0.0	0.0	1.002	100.0	0	99999.0	0.0															
	2335	1.3	0.0	0.0	0.0	1.004	100.0	1	20.0	1.3															
	3783	11.2	0.0	0.0	0.0	1.051	100.0	0	99999.0	0.0															
	4878	2.3	0.0	0.0	0.0	1.009	100.0	0	99999.0	0.0															
	836	14.2	0.0	0.0	0.0	1.003	100.0	0	14.499999999999998	6.5															
	9923	2.9	0.0	0.0	0.0	0.993	100.0	0	99999.0	0.0															
	6593	19.0	0.0	0.0	0.0	1.006	100.0	1	30.0	19.0															
	37	0.0	-181.0	287.0	-415.00000000000006	0.955	100.0	1	0.0	0.0															
	2031	26.0	0.2848	14.400000000000002	-15.6	1.026	100.0	1	40.0	26.0															
	4403	5.4	-0.795	4.3	-4.3	1.003	100.0	1	99999.0	0.0															
	3785	20.0	0.0	0.0	0.0	1.063	100.0	0	99999.0	0.0															
	2449	36.5	0.0	0.0	0.0	1.054	100.0	0	36.5	0.8															
	7072	21.0	0.0	0.0	0.0	1.013	100.0	0	99999.0	0.0															
	8986	279.0	-11.4	344.1	-344.0	0.986	100.0	1	99999.0	0.0															
	10012	43.2	0.0	0.0	0.0	1.014	100.0	0	99999.0	0.0															
	5012	0.0	0.0	0.0	0.0	1.032	100.0	1	51.0	0.0															
	2254	0.0	0.0	0.0	0.0	0.874	100.0	1	4.6	0.0															
	4136	0.0	0.0	0.0	0.0	1.008	100.0	1	0.0	0.0															
	4190	55.00000000000001	0.0	0.0	0.0	1.025	100.0	1	55.00000000000001	15.0															
	10314	6.800000000000001	0.0	0.0	0.0	1.013	100.0	0	99999.0	0.0															
	4911	6.5	0.2403	3.15	-2.1	1.0	100.0	1	99999.0	0.0															
	513	315.0	-67.4	144.0	-144.0	0.992	100.0	1	483.0	315.0															
	2818	9.8	0.0	0.0	0.0	1.017	100.0	0	99999.0	0.0															
	2622	2.1	0.0	0.0	0.0	1.002	100.0	0	99999.0	0.0															
	9100	59.0	62.23	120.0	-120.0	1.013	100.0	1	158.3	59.0															
	4788	2.2	-0.1	2.42	-1.6	1.011	100.0	1	99999.0	0.0															
	5363	3.7000000000000006	0.0	0.0	0.0	1.027	100.0	0	99999.0	0.0															
	806	115.99999999999999	-8.18	57.99999999999999	-57.99999999999999	0.949	100.0	1	115.99999999999999	112.1															
	2977	12.6	0.0	0.0	0.0	1.083	100.0	0	29.2	7.200000000000001															
	4698	2.0	0.0089	1.5	-1.5	0.996	100.0	1	99999.0	0.0															
	1513	19.8	0.0	0.0	0.0	1.009	100.0	0	99999.0	0.0															
	1155	475.0	-58.4	244.0	-240.0	0.967	100.0	1	475.0	465.00000000000006															
	44075	0.0	-23.2	100.0	-70.0	0.976	100.0	1	99999.0	0.0															
	3563	0.0	0.0	0.0	0.0	1.034	100.0	1	99999.0	0.0															
	9948	3.0	-0.3	-0.3	-0.3	1.044	100.0	1	99999.0	0.0															
	5522	53.0	-8.53	37.0	-40.0	0.991	100.0	1	53.0	53.0															
	8229	21.1	12.8	0.0	0.0	0.998	100.0	0	99999.0	0.0															
	921	337.0	19.52	124.0	-90.0	0.985	100.0	1	337.0	325.5															
	6812	6.7	0.0	0.0	0.0	1.042	100.0	1	6.800000000000001	5.2															
	2350	18.0	0.0	0.0	0.0	0.977	100.0	0	18.0	6.7															
	5771	0.0	0.0	0.0	0.0	1.006	100.0	1	99999.0	0.0															
	304	234.0	-5.51	60.0	-60.0	0.966	100.0	1	359.0	234.0															
	6688	13.600000000000001	-0.51	9.0	-9.0	1.001	100.0	1	99999.0	0.0															
	6422	533.0	-210.0	210.0	-210.0	0.987	100.0	1	1150.0	480.0															
	6550	32.7	-1.05	17.9	-17.9	0.998	100.0	1	99999.0	0.0															
	809	0.0	0.0	0.0	0.0	0.967	100.0	1	0.0	0.0															
	8904	99.1	39.11	96.0	-60.0	0.981	100.0	1	106.0	99.1															
	1125	9.5	0.0	0.0	0.0	1.005	100.0	1	9.5	4.0															
	7441	0.0	0.0	0.0	0.0	1.001	100.0	1	99999.0	0.0															
...
];

%% branch data
%    f_bus    t_bus    r    x    b    rateA    rateB    rateC    ratio    angle    status    angmin    angmax
mpc.branch = [
	3140	12043	0.0003	0.0006	0.0	80.0	80.0	80.0	0	0	0	-59.99999999999999	59.99999999999999								
	270	1608	0.0001	0.0007000000000000001	0.00018999999999999998	269.0	324.0	269.0	0	0	1	-59.99999999999999	59.99999999999999								
	21901	1904	0.0098	0.0467	0.0132	114.99999999999999	114.99999999999999	114.99999999999999	0	0	1	-59.99999999999999	59.99999999999999								
	766	226	0.0077	0.032400000000000005	0.0646	219.0	278.0	50.0	0	0	1	-59.99999999999999	59.99999999999999								
	1010	1057	0.00935	0.04556	0.08004	243.00000000000003	306.0	306.0	0	0	1	-59.99999999999999	59.99999999999999								
	4807	4863	0.0704	0.1721	0.044000000000000004	68.0	68.0	80.0	0	0	1	-59.99999999999999	59.99999999999999								
	5721	8456	0.00014000000000000001	0.00075	0.0	0.0	0.0	400.0	0	0	1	-59.99999999999999	59.99999999999999								
	7540	4902	0.057800000000000004	0.1182	0.0301	80.0	100.0	100.0	0	0	1	-59.99999999999999	59.99999999999999								
	761	3789	0.00252	0.016319999999999998	0.00363	155.0	180.0	155.0	0	0	1	-59.99999999999999	59.99999999999999								
	251	262	0.01045	0.021707	0.005242	96.0	120.0	96.0	0	0	1	-59.99999999999999	59.99999999999999								
	1890	1892	0.023799999999999998	0.056100000000000004	0.01312	147.0	178.0	178.0	0	0	1	-59.99999999999999	59.99999999999999								
	5990	5999	0.0144	0.1338	0.0111	0.0	0.0	0.0	0	0	1	-59.99999999999999	59.99999999999999								
	575	21953	0.0031509999999999997	0.014074999999999999	0.0040999999999999995	150.0	150.0	150.0	0	0	1	-59.99999999999999	59.99999999999999								
	6358	6351	0.0004	0.0020599999999999998	0.0064800000000000005	797.0	797.0	797.0	0	0	1	-59.99999999999999	59.99999999999999								
	103	609	0.0006	0.00946	0.7626000000000001	1855.0	2337.0	1855.0	0	0	1	-59.99999999999999	59.99999999999999								
	1857	1859	0.0524	0.1364	0.03321	97.0	97.0	97.0	0	0	1	-59.99999999999999	59.99999999999999								
	7177	307	0.0833	0.198	0.048	125.0	125.0	125.0	0	0	1	-59.99999999999999	59.99999999999999								
	649	7628	0.044831	0.11775000000000001	0.0302	80.0	108.0	80.0	0	0	1	-59.99999999999999	59.99999999999999								
	4304	3983	0.027999999999999997	0.07227	0.018000000000000002	139.0	163.0	139.0	0	0	1	-59.99999999999999	59.99999999999999								
	6290	6369	0.00183	0.028919999999999998	4.3895	2123.0	2676.0	2123.0	0	0	1	-59.99999999999999	59.99999999999999								
	2301	2316	0.02222	0.053	0.014166000000000002	125.0	135.0	188.0	0	0	1	-59.99999999999999	59.99999999999999								
	4230	22330	0.00515	0.013540000000000002	0.00316	101.0	144.0	101.0	0	0	1	-59.99999999999999	59.99999999999999								
	4247	2122	0.00082	0.00439	0.00135	188.0	191.0	80.0	0	0	1	-59.99999999999999	59.99999999999999								
	270	1600	0.0006	0.0040999999999999995	0.00493	538.0	648.0	478.0	0	0	1	-59.99999999999999	59.99999999999999								
	6718	6719	0.006526	0.11236	0.006201	0.0	0.0	0.0	0	0	1	-59.99999999999999	59.99999999999999								
	3144	3145	0.1973	0.3403	0.0049	24.0	30.0	210.0	0	0	1	-59.99999999999999	59.99999999999999								
	2690	2689	0.1439	0.33159999999999995	0.0044	82.0	82.0	82.0	0	0	1	-59.99999999999999	59.99999999999999								
	1582	4090	0.0678	0.17600000000000002	0.0431	125.0	160.0	125.0	0	0	1	-59.99999999999999	59.99999999999999								
	3829	22004	0.0029	0.0076	0.002	95.0	139.0	95.0	0	0	1	-59.99999999999999	59.99999999999999								
	21908	21943	0.040162	0.094282	0.025	139.0	163.0	139.0	0	0	1	-59.99999999999999	59.99999999999999								
	6430	6509	0.00157	0.023799999999999998	3.3484	1992.0000000000002	2450.0	1992.0000000000002	0	0	1	-59.99999999999999	59.99999999999999								
	2380	9320	0.0108	0.0521	0.0013	101.0	101.0	101.0	0	0	1	-59.99999999999999	59.99999999999999								
	9519	29518	0.039676	0.11214	0.00479	89.0	126.0	89.0	0	0	0	-59.99999999999999	59.99999999999999								
	9320	2430	0.032400000000000005	0.1173	0.0028899999999999998	40.0	52.0	52.0	0	0	1	-59.99999999999999	59.99999999999999								
	4690	4772	0.14623	0.35365	0.0812	98.0	122.0	98.0	0	0	1	-59.99999999999999	59.99999999999999								
	4600	4606	0.00211	0.005829999999999999	0.00194	160.0	160.0	56.00000000000001	0	0	1	-59.99999999999999	59.99999999999999								
	22470	9129	0.0003	0.000774	0.00019199999999999998	139.0	163.0	139.0	0	0	0	-59.99999999999999	59.99999999999999								
	5551	5541	0.02077	0.09959	0.18334	233.0	239.0	776.0	0	0	1	-59.99999999999999	59.99999999999999								
	1076	538	8.0e-5	0.00109	0.07136	2626.0	3082.0	3082.0	0	0	1	-59.99999999999999	59.99999999999999								
	766	3723	0.00623	0.04768	0.0907	299.0	376.0	299.0	0	0	1	-59.99999999999999	59.99999999999999								
	1671	1632	0.00315	0.0233	0.00705	269.0	324.0	269.0	0	0	1	-59.99999999999999	59.99999999999999								
	104	598	0.00075	0.0115	0.9890000000000001	1855.0	2252.0	1855.0	0	0	1	-59.99999999999999	59.99999999999999								
	2648	2929	0.1305	0.16620000000000001	0.0023	47.0	47.0	47.0	0	0	1	-59.99999999999999	59.99999999999999								
	9396	830	0.0021	0.006500000000000001	0.00159	27.0	27.0	27.0	0	0	1	-59.99999999999999	59.99999999999999								
	657	1098	0.011399999999999999	0.050300000000000004	0.0141	140.0	176.0	151.0	0	0	1	-59.99999999999999	59.99999999999999								
	782	785	0.01278	0.03711	0.00993	80.0	92.0	60.0	0	0	1	-59.99999999999999	59.99999999999999								
	2383	2390	0.021099999999999997	0.0616	0.01662	83.0	131.0	131.0	0	0	1	-59.99999999999999	59.99999999999999								
	2112	2114	0.1216	0.1722	0.0027	28.999999999999996	28.999999999999996	28.999999999999996	0	0	1	-59.99999999999999	59.99999999999999								
	7713	7712	0.006126	0.015895	0.003901	99.0	99.0	99.0	0	0	1	-59.99999999999999	59.99999999999999								
	779	768	0.051399999999999994	0.1072	0.025699999999999997	80.0	93.0	80.0	0	0	1	-59.99999999999999	59.99999999999999								
	22685	2339	0.0001	0.0002	0.0001	101.0	144.0	101.0	0	0	0	-59.99999999999999	59.99999999999999								
	5967	5968	0.018133	0.18262	0.010669	0.0	0.0	0.0	0	0	1	-59.99999999999999	59.99999999999999								
	9707	855	0.03299	0.09945	0.025310000000000003	111.00000000000001	131.0	131.0	0	0	1	-59.99999999999999	59.99999999999999								
	284	1652	0.00168	0.009572	0.00272	218.00000000000003	264.0	218.00000000000003	0	0	1	-59.99999999999999	59.99999999999999								
	6142	8643	0.0046500000000000005	0.02365	0.0070599999999999994	218.00000000000003	283.0	218.00000000000003	0	0	1	-59.99999999999999	59.99999999999999								
	1216	9223	0.021067	0.032933	0.0065980000000000006	91.0	91.0	91.0	0	0	1	-59.99999999999999	59.99999999999999								
	9555	9229	0.001	0.0033	6.0e-5	54.0	79.0	79.0	0	0	1	-59.99999999999999	59.99999999999999								
	9552	9275	0.06344999999999999	0.23579999999999998	0.0035099999999999997	84.0	101.0	101.0	0	0	1	-59.99999999999999	59.99999999999999								
	22047	23198	0.042104	0.09917	0.0043	89.0	104.0	89.0	0	0	1	-59.99999999999999	59.99999999999999								
	3116	3122	0.01187	0.062220000000000004	0.0027900000000000004	159.0	159.0	159.0	0	0	1	-59.99999999999999	59.99999999999999								
	5421	5441	0.0321	0.1654	0.3134	250.99999999999997	317.0	380.0	0	0	1	-59.99999999999999	59.99999999999999								
	734	12011	0.020922999999999997	0.052754	0.013500000000000002	108.0	130.0	108.0	0	0	1	-59.99999999999999	59.99999999999999								
	4325	3975	0.00666	0.027080000000000003	0.00726	153.0	194.0	153.0	0	0	1	-59.99999999999999	59.99999999999999								
	8119	8121	0.000558	0.067897	0.030558000000000002	0.0	0.0	0.0	0	0	1	-59.99999999999999	59.99999999999999								
	954	1047	0.03605	0.17776	0.30655	350.0	378.0	378.0	0	0	1	-59.99999999999999	59.99999999999999								
	5591	5696	0.000851	0.006503	0.024900000000000002	150.0	150.0	150.0	0	0	1	-59.99999999999999	59.99999999999999								
	1322	9195	0.0	0.0001	0.0	0.0	0.0	0.0	0	0	1	-59.99999999999999	59.99999999999999								
	414	608	0.000234	0.002902	0.18780000000000002	1524.0	1524.0	1524.0	0	0	1	-59.99999999999999	59.99999999999999								
	3501	231	0.01988	0.08434	0.15202	210.0	264.0	210.0	0	0	1	-59.99999999999999	59.99999999999999								
	2854	10016	0.0	0.0001	4.0e-5	72.0	72.0	72.0	0	0	0	-59.99999999999999	59.99999999999999								
	7179	4055	0.0329	0.0852	0.0209	150.0	160.0	150.0	0	0	1	-59.99999999999999	59.99999999999999								
	4358	394	0.00057	0.00387	0.014570000000000001	334.0	390.0	334.0	0	0	1	-59.99999999999999	59.99999999999999								
	2094	9677	0.03025	0.0754	0.019745	134.0	162.0	162.0	0	0	1	-59.99999999999999	59.99999999999999								
	2524	2525	0.0192	0.0738	0.020099999999999996	160.0	176.0	160.0	0	0	1	-59.99999999999999	59.99999999999999								
	9698	9531	0.0364	0.1057	0.028727	81.0	129.0	129.0	0	0	1	-59.99999999999999	59.99999999999999								
	22189	2189	8.999999999999999e-5	0.00021999999999999998	6.0e-5	101.0	144.0	101.0	0	0	1	-59.99999999999999	59.99999999999999								
	2556	2520	0.001	0.0042	0.04731	160.0	176.0	186.0	0	0	1	-59.99999999999999	59.99999999999999								
	1259	1268	0.00046	0.0031	0.005869999999999999	336.0	423.00000000000006	423.00000000000006	0	0	1	-59.99999999999999	59.99999999999999								
	22004	699	0.014168	0.03578	0.0092	108.0	130.0	108.0	0	0	1	-59.99999999999999	59.99999999999999								
	3465	465	0.0	0.0001	0.0	0.0	0.0	0.0	0	0	1	-59.99999999999999	59.99999999999999								
	2386	9436	0.0054	0.025699999999999997	0.00064	119.0	119.0	119.0	0	0	1	-59.99999999999999	59.99999999999999								
	23042	595	0.015937	0.041872	0.010700000000000001	139.0	143.0	139.0	0	0	1	-59.99999999999999	59.99999999999999								
	6584	11653	0.005	0.012	0.003	101.0	144.0	101.0	0	0	1	-59.99999999999999	59.99999999999999								
	1257	1338	0.010034000000000001	0.025400999999999996	0.006533	134.0	162.0	162.0	0	0	1	-59.99999999999999	59.99999999999999								
	2619	2635	0.0165	0.07200000000000001	0.015	220.00000000000003	220.00000000000003	220.00000000000003	0	0	1	-59.99999999999999	59.99999999999999								
	3811	21976	0.0016	0.0043	0.0011	95.0	139.0	95.0	0	0	1	-59.99999999999999	59.99999999999999								
	3918	624	0.0	0.0001	0.0	0.0	0.0	0.0	0	0	1	-59.99999999999999	59.99999999999999								
	2911	2629	0.0045000000000000005	0.00089	0.00037999999999999997	150.0	150.0	85.0	0	0	1	-59.99999999999999	59.99999999999999								
	698	21936	0.0052580000000000005	0.022317	0.006500000000000001	191.0	210.0	191.0	0	0	1	-59.99999999999999	59.99999999999999								
	4522	4541	0.04102	0.19862	0.37065	233.0	294.0	233.0	0	0	1	-59.99999999999999	59.99999999999999								
	8403	8405	0.00165	0.02376	3.5408999999999997	2715.0	3394.0	86.0	0	0	1	-59.99999999999999	59.99999999999999								
	673	17686	0.02355	0.055275	0.014684999999999998	139.0	163.0	139.0	0	0	1	-59.99999999999999	59.99999999999999								
	17604	11956	0.001126	0.002643	0.0007000000000000001	139.0	163.0	139.0	0	0	1	-59.99999999999999	59.99999999999999								
	2247	2251	0.0070999999999999995	0.0177	0.004699999999999999	103.0	129.0	128.0	0	0	0	-59.99999999999999	59.99999999999999								
	6368	5891	0.0059	0.029900000000000003	0.055999999999999994	351.0	351.0	351.0	0	0	1	-59.99999999999999	59.99999999999999								
	1082	1134	0.006999999999999999	0.0181	0.0044800000000000005	124.0	140.0	140.0	0	0	1	-59.99999999999999	59.99999999999999								
	4075	344	0.0007599999999999999	0.01146	0.9586	2401.0	2858.0	2401.0	0	0	1	-59.99999999999999	59.99999999999999								
	5881	6368	0.0043	0.0231	0.039599999999999996	250.99999999999997	306.0	306.0	0	0	1	-59.99999999999999	59.99999999999999								
	5972	5991	0.02625	0.13749	0.2535	300.0	355.0	300.0	0	0	1	-59.99999999999999	59.99999999999999								
	863	874	0.0435	0.134	0.03322	65.0	86.0	86.0	0	0	1	-59.99999999999999	59.99999999999999								
	3768	2998	0.029769999999999998	0.08656000000000001	0.0232	103.0	120.0	103.0	0	0	1	-59.99999999999999	59.99999999999999								
	1303	1332	0.0195	0.0594	1.0e-5	84.0	101.0	101.0	0	0	1	-59.99999999999999	59.99999999999999								
	377	1521	0.0143	0.0365	0.0092	95.0	95.0	95.0	0	0	1	-59.99999999999999	59.99999999999999								
	580	4598	0.0013900000000000002	0.03089	4.6088	2992.0	3793.0	2400.0	0	0	1	-59.99999999999999	59.99999999999999								
	2344	2127	0.0104	0.0347	0.00936	128.0	162.0	33.0	0	0	1	-59.99999999999999	59.99999999999999								
	2502	2503	0.029500000000000002	0.075	0.018879999999999997	125.0	138.0	125.0	0	0	1	-59.99999999999999	59.99999999999999								
	830	9898	0.0279	0.0852	0.021	80.0	129.0	129.0	0	0	1	-59.99999999999999	59.99999999999999								
	7222	7246	0.0055000000000000005	0.0134	0.0034000000000000002	112.00000000000001	140.0	140.0	0	0	1	-59.99999999999999	59.99999999999999								
	1640	4112	0.0006219999999999999	0.00664	0.004033999999999999	538.0	648.0	538.0	0	0	1	-59.99999999999999	59.99999999999999								
	2083	10142	0.0	1.0e-5	0.0	0.0	0.0	0.0	0	0	0	-59.99999999999999	59.99999999999999								
	8606	8607	0.017143	0.14177	0.000963	0.0	0.0	0.0	0	0	1	-59.99999999999999	59.99999999999999								
	568	2191	0.0039000000000000003	0.0212	0.006500000000000001	121.0	131.0	315.0	0	0	1	-59.99999999999999	59.99999999999999								
	6018	5669	0.001797	0.010627	0.0066549999999999995	0.0	0.0	124.0	0	0	1	-59.99999999999999	59.99999999999999								
	2159	2174	0.00977	0.0246	0.00628	101.0	144.0	101.0	0	0	1	-59.99999999999999	59.99999999999999								
	386	1518	0.013300000000000001	0.06	0.017	181.0	181.0	181.0	0	0	1	-59.99999999999999	59.99999999999999								
	663	3171	0.0089	0.022400000000000003	0.001	53.0	66.0	75.0	0	0	1	-59.99999999999999	59.99999999999999								
	695	696	0.0051	0.0134	0.0034999999999999996	139.0	163.0	139.0	0	0	1	-59.99999999999999	59.99999999999999								
	21394	21395	0.0013	0.00332	0.000839	122.0	130.0	122.0	0	0	1	-59.99999999999999	59.99999999999999								
	9959	9950	0.23921	1.2009	0.013539	0.0	0.0	0.0	0	0	1	-59.99999999999999	59.99999999999999								
	2363	2366	0.037000000000000005	0.1247	0.0023899999999999998	67.0	67.0	67.0	0	0	1	-59.99999999999999	59.99999999999999								
	307	755	0.061900000000000004	0.162	0.03875	125.0	154.0	125.0	0	0	1	-59.99999999999999	59.99999999999999								
	7905	7906	0.005	0.04	0.036000000000000004	0.0	0.0	0.0	0	0	1	-59.99999999999999	59.99999999999999								
	2543	2561	0.001	1.0e-6	1.0e-6	0.0	0.0	0.0	0	0	1	-59.99999999999999	59.99999999999999								
	7712	342	0.0	1.0e-5	0.0	125.0	125.0	125.0	0	0	1	-59.99999999999999	59.99999999999999								
	283	1657	0.000378	0.002154	0.00061	218.00000000000003	264.0	218.00000000000003	0	0	1	-59.99999999999999	59.99999999999999								
	1065	2875	0.049800000000000004	0.1612	0.0032	72.0	72.0	72.0	0	0	1	-59.99999999999999	59.99999999999999								
	12012	14233	0.009188	0.024094	0.0062	108.0	130.0	108.0	0	0	1	-59.99999999999999	59.99999999999999								
	42226	330	0.0	0.063	0.0	150.0	170.0	150.0	0	0	1	-59.99999999999999	59.99999999999999								
	5381	5452	0.005520000000000001	0.026920000000000003	0.06045	307.0	307.0	307.0	0	0	1	-59.99999999999999	59.99999999999999								
	4043	319	0.0137	0.0706	0.11199999999999999	334.0	390.0	334.0	0	0	1	-59.99999999999999	59.99999999999999								
	3009	2699	0.0025	0.011000000000000001	0.0023	225.99999999999997	225.99999999999997	225.99999999999997	0	0	1	-59.99999999999999	59.99999999999999								
	276	9640	0.002053	0.006165	0.001555	143.0	172.0	143.0	0	0	1	-59.99999999999999	59.99999999999999								
	1509	1533	0.02812	0.07275999999999999	0.01784	124.0	124.0	124.0	0	0	1	-59.99999999999999	59.99999999999999								
	2745	2749	0.0654	0.2205	0.0039000000000000003	80.0	80.0	80.0	0	0	1	-59.99999999999999	59.99999999999999								
	4050	325	0.00215	0.03218	2.68	2442.0	2598.0	2442.0	0	0	1	-59.99999999999999	59.99999999999999								
	7397	1545	0.00255	0.01284	0.0	999.0	999.0	999.0	0	0	1	-59.99999999999999	59.99999999999999								
	237	3733	0.0149	0.0433	0.0116	103.0	120.0	103.0	0	0	1	-59.99999999999999	59.99999999999999								
	2666	2911	0.0070999999999999995	0.0278	0.00774	225.99999999999997	225.99999999999997	10.0	0	0	1	-59.99999999999999	59.99999999999999								
	9117	9116	0.0	0.0001	0.0	89.0	104.0	104.0	0	0	1	-59.99999999999999	59.99999999999999								
	1360	1366	0.01808	0.061	0.0011	54.0	79.0	79.0	0	0	1	-59.99999999999999	59.99999999999999								
	3019	3035	0.0022400000000000002	0.023929999999999996	0.43	850.0	1075.0	850.0	0	0	1	-59.99999999999999	59.99999999999999								
	5050	5090	0.00296	0.030369999999999998	3.1322	1306.0	1854.0	1306.0	0	0	1	-59.99999999999999	59.99999999999999								
	561	527	0.0028060000000000003	0.034982	2.2644	1524.0	1524.0	1524.0	0	0	1	-59.99999999999999	59.99999999999999								
	436	41894	1.0e-5	1.0e-5	0.0	0.0	0.0	0.0	0	0	1	-59.99999999999999	59.99999999999999								
	4517	4579	0.00241	0.03945	5.261900000000001	2598.0	3272.9999999999995	2716.0	0	0	1	-59.99999999999999	59.99999999999999								
	6416	8297	1.0e-5	1.0e-5	0.0	0.0	0.0	0.0	0	0	1	-59.99999999999999	59.99999999999999								
	7474	7510	0.0008500000000000001	0.00216	0.0005510000000000001	122.0	130.0	122.0	0	0	1	-59.99999999999999	59.99999999999999								
	1378	1314	0.0274	0.09480000000000001	0.0016300000000000002	54.0	79.0	79.0	0	0	1	-59.99999999999999	59.99999999999999								
	4358	345	0.01825	0.08939	0.16690000000000002	303.0	303.0	303.0	0	0	1	-59.99999999999999	59.99999999999999								
	9537	821	0.0046	0.0239	0.0473	276.0	276.0	276.0	0	0	1	-59.99999999999999	59.99999999999999								
	6311	7186	0.000369	0.002143	0.011491	300.0	355.0	300.0	0	0	1	-59.99999999999999	59.99999999999999								
	226	760	0.0	0.0001	0.0	438.0	438.0	438.0	0	0	1	-59.99999999999999	59.99999999999999								
	5871	42252	0.005849	0.025537999999999998	0.06296	250.0	317.0	317.0	0	0	1	-59.99999999999999	59.99999999999999								
	4495	4720	0.00067	0.01106	1.4764	2598.0	3272.9999999999995	2716.0	0	0	1	-59.99999999999999	59.99999999999999								
	7491	7494	0.19705999999999999	0.27477	0.0044280000000000005	42.0	50.0	42.0	0	0	1	-59.99999999999999	59.99999999999999								
	5371	5656	2.0e-5	0.006697	0.0091	690.0	690.0	690.0	0	0	1	-59.99999999999999	59.99999999999999								
	9866	9867	0.10234	0.474	0.002502	0.0	0.0	0.0	0	0	1	-59.99999999999999	59.99999999999999								
	855	2495	0.034	0.0989	0.0268	88.0	132.0	132.0	0	0	1	-59.99999999999999	59.99999999999999								
	2701	9599	0.0319	0.1097	0.0304	143.0	143.0	143.0	0	0	1	-59.99999999999999	59.99999999999999								
	2833	2712	0.00869	0.030600000000000002	0.008	143.0	143.0	143.0	0	0	1	-59.99999999999999	59.99999999999999								
	229	2988	0.014025000000000001	0.065014	0.12294000000000001	227.0	323.0	227.0	0	0	1	-59.99999999999999	59.99999999999999								
	4910	4880	0.37777	0.9443300000000001	0.00183	31.0	31.0	38.0	0	0	1	-59.99999999999999	59.99999999999999								
	7089	7090	0.0252	0.0478	0.00086	40.0	46.0	40.0	0	0	1	-59.99999999999999	59.99999999999999								
	3010	3011	0.001078	0.016276	1.419	1992.0000000000002	2390.0	26.0	0	0	1	-59.99999999999999	59.99999999999999								
	659	11915	0.004056000000000001	0.010476000000000001	0.0028000000000000004	80.0	108.0	80.0	0	0	1	-59.99999999999999	59.99999999999999								
	5802	5822	0.0028000000000000004	0.0147	0.0254	517.0	517.0	517.0	0	0	1	-59.99999999999999	59.99999999999999								
	3195	12007	0.022913000000000003	0.044188	0.0016200000000000001	65.0	93.0	65.0	0	0	0	-59.99999999999999	59.99999999999999								
	9622	3519	0.003294	0.013381	0.0035870000000000003	172.0	206.0	172.0	0	0	1	-59.99999999999999	59.99999999999999								
	9124	4288	0.0034999999999999996	0.009034	0.002244	139.0	163.0	139.0	0	0	1	-59.99999999999999	59.99999999999999								
	5371	5690	0.000189	0.0009429999999999999	0.0	300.0	360.0	300.0	0	0	1	-59.99999999999999	59.99999999999999								
	5941	5726	0.005	0.0242	0.044000000000000004	0.0	0.0	0.0	0	0	1	-59.99999999999999	59.99999999999999								
	9104	472	0.000301	0.002678	0.0092	608.0	637.0	637.0	0	0	1	-59.99999999999999	59.99999999999999								
	353	7174	0.0048	0.019	0.0053	215.0	215.0	215.0	0	0	1	-59.99999999999999	59.99999999999999								
	392	7178	0.0191	0.0365	0.0046	73.0	73.0	73.0	0	0	1	-59.99999999999999	59.99999999999999								
	2508	236	0.00315	0.01121	0.00297	160.0	176.0	41.0	0	0	1	-59.99999999999999	59.99999999999999								
	1268	41004	1.0e-5	1.0e-5	0.0	0.0	0.0	0.0	0	0	1	-59.99999999999999	59.99999999999999								
	7347	4029	0.0031	0.0072	0.0016	150.0	160.0	150.0	0	0	1	-59.99999999999999	59.99999999999999								
	7710	7708	0.066107	0.25386	0.067876	100.0	120.0	120.0	0	0	1	-59.99999999999999	59.99999999999999								
	11971	681	0.010253000000000002	0.045801999999999995	0.0134	143.0	143.0	143.0	0	0	1	-59.99999999999999	59.99999999999999								
	11684	6603	0.00149	0.00379	0.00096	144.0	168.0	144.0	0	0	1	-59.99999999999999	59.99999999999999								
	5034	5170	0.001457	0.018862	0.029608	0.0	0.0	0.0	0	0	1	-59.99999999999999	59.99999999999999								
	1508	1553	0.1509	0.2375	0.046900000000000004	94.0	94.0	94.0	0	0	1	-59.99999999999999	59.99999999999999								
	10291	1843	0.079	0.20679999999999998	0.0506	124.0	124.0	124.0	0	0	1	-59.99999999999999	59.99999999999999								
	5570	6743	0.000427	0.005094	0.5238700000000001	2148.0	2685.0	2148.0	0	0	1	-59.99999999999999	59.99999999999999								
	2034	11738	0.0004	0.0009	0.0002	103.0	129.0	103.0	0	0	1	-59.99999999999999	59.99999999999999								
	1047	934	0.0304	0.1572	0.27088999999999996	259.0	319.0	319.0	0	0	1	-59.99999999999999	59.99999999999999								
	8111	8113	0.073468	0.69383	0.0034189999999999997	0.0	0.0	0.0	0	0	1	-59.99999999999999	59.99999999999999								
	72	71	0.00064	0.0154	7.6	4133.0	4174.0	3684.0000000000005	0	0	1	-59.99999999999999	59.99999999999999								
	22021	23082	0.011543000000000001	0.030769	0.0013	50.0	68.0	50.0	0	0	1	-59.99999999999999	59.99999999999999								
	6914	6901	0.0364	0.1191	0.002121	69.0	69.0	111.00000000000001	0	0	1	-59.99999999999999	59.99999999999999								
	14231	4231	0.0	0.0001	0.0	216.0	252.99999999999997	216.0	0	0	1	-59.99999999999999	59.99999999999999								
	2227	2234	0.0064010000000000004	0.021640000000000003	0.006129	103.0	129.0	188.0	0	0	1	-59.99999999999999	59.99999999999999								
	183	274	0.0433	0.2518	0.0726	155.0	195.0	155.0	0	0	1	-59.99999999999999	59.99999999999999								
	4619	4623	0.0783	0.1911	0.04881	94.0	118.0	118.0	0	0	1	-59.99999999999999	59.99999999999999								
	2573	2576	0.008199999999999999	0.0315	0.0022400000000000002	23.0	25.0	23.0	0	0	1	-59.99999999999999	59.99999999999999								
	1016	2799	0.00866	0.0291	0.00793	119.0	143.0	143.0	0	0	1	-59.99999999999999	59.99999999999999								
	1760	1759	0.001598	0.0040100000000000005	0.001052	122.0	129.0	129.0	0	0	0	-59.99999999999999	59.99999999999999								
	1755	8704	0.0037099999999999998	0.014879999999999999	0.004135	169.0	186.0	215.0	0	0	1	-59.99999999999999	59.99999999999999								
	3040	2605	0.00182	0.0046500000000000005	0.00114	164.0	164.0	164.0	0	0	1	-59.99999999999999	59.99999999999999								
	1238	2059	0.06987	0.24762	0.06309999999999999	108.0	158.0	158.0	0	0	1	-59.99999999999999	59.99999999999999								
...
];

%% dcline data
%    f_bus    t_bus    status    Pf    Pt    Qf    Qt    Vf    Vt    Pmin    Pmax    QminF    QmaxF    QminT    QmaxT    loss0    loss1
mpc.dcline = [
	85	86	1	1125.0	1088.19140625	-0.0	-0.0	1.024	1.005	-1088.19140625	1125.0	-1120.7190353532137	0.0	-1040.6426171949786	0.0	0.0	0.0						
	85	86	1	1125.0	1088.19140625	-0.0	-0.0	1.024	1.005	-1088.19140625	1125.0	-1120.7190353532137	0.0	-1040.6426171949786	0.0	0.0	0.0						
	85	86	1	1125.0	1088.19140625	-0.0	-0.0	1.024	1.005	-1088.19140625	1125.0	-1120.7190353532137	0.0	-1040.6426171949786	0.0	0.0	0.0						
	85	86	1	1125.0	1088.19140625	-0.0	-0.0	1.024	1.005	-1088.19140625	1125.0	-1120.7190353532137	0.0	-1040.6426171949786	0.0	0.0	0.0						
	7055	7057	1	750.0	723.28125	-0.0	-0.0	1.065	1.049	-723.28125	750.0	-747.1460235688091	0.0	-691.6772992738893	0.0	0.0	0.0						
	7055	7057	1	750.0	723.28125	-0.0	-0.0	1.065	1.049	-723.28125	750.0	-747.1460235688091	0.0	-691.6772992738893	0.0	0.0	0.0						
	7055	7057	1	750.0	725.234375	-0.0	-0.0	1.065	1.049	-725.234375	750.0	-747.1460235688091	0.0	-687.7569133811835	0.0	0.0	0.0						
	7055	7057	1	750.0	725.234375	-0.0	-0.0	1.065	1.049	-725.234375	750.0	-747.1460235688091	0.0	-687.7569133811835	0.0	0.0	0.0						
	7059	7054	1	200.0	197.6841219541379	-0.0	-0.0	1.065	1.009	-197.6841219541379	200.0	-197.25712030744629	0.0	-183.28952618008847	0.0	0.0	0.0						
	7059	7054	1	200.0	197.6841219541379	-0.0	-0.0	1.065	1.009	-197.6841219541379	200.0	-197.25712030744629	0.0	-183.28952618008847	0.0	0.0	0.0						
	8100	3010	1	200.0	199.13125	-0.0	-0.0	1.084	1.064	-199.13125	200.0	-195.1069087891713	0.0	-189.38507291049928	0.0	0.0	0.0						
	8100	3010	1	200.0	199.13125	-0.0	-0.0	1.084	1.064	-199.13125	200.0	-195.1069087891713	0.0	-189.38507291049928	0.0	0.0	0.0						
	8100	9605	1	200.0	198.949375	-0.0	-0.0	1.084	1.041	-198.949375	200.0	-199.23893961834912	0.0	-190.2562335083734	0.0	0.0	0.0						
	8100	9605	1	200.0	198.949375	-0.0	-0.0	1.084	1.041	-198.949375	200.0	-199.23893961834912	0.0	-190.2562335083734	0.0	0.0	0.0						
];

%%-----  OPF Data  -----%%
%% cost data
%    1    startup    shutdown    n    x1    y1    ...    xn    yn
%    2    startup    shutdown    n    c(n-1)    ...    c0
mpc.gencost = [
	2	0.0	0.0	2	1.0	0.0
	2	0.0	0.0	2	1.0	0.0
	2	0.0	0.0	2	1.0	0.0
	2	0.0	0.0	2	1.0	0.0
	2	0.0	0.0	2	1.0	0.0
	2	0.0	0.0	2	1.0	0.0
	2	0.0	0.0	2	1.0	0.0
	2	0.0	0.0	2	1.0	0.0
	2	0.0	0.0	2	1.0	0.0
	2	0.0	0.0	2	1.0	0.0
	2	0.0	0.0	2	1.0	0.0
	2	0.0	0.0	2	1.0	0.0
	2	0.0	0.0	2	1.0	0.0
	2	0.0	0.0	2	1.0	0.0
	2	0.0	0.0	2	1.0	0.0
	2	0.0	0.0	2	1.0	0.0
	2	0.0	0.0	2	1.0	0.0
	2	0.0	0.0	2	1.0	0.0
	2	0.0	0.0	2	1.0	0.0
	2	0.0	0.0	2	1.0	0.0
	2	0.0	0.0	2	1.0	0.0
	2	0.0	0.0	2	1.0	0.0
	2	0.0	0.0	2	1.0	0.0
	2	0.0	0.0	2	1.0	0.0
	2	0.0	0.0	2	1.0	0.0
	2	0.0	0.0	2	1.0	0.0
	2	0.0	0.0	2	1.0	0.0
	2	0.0	0.0	2	1.0	0.0
	2	0.0	0.0	2	1.0	0.0
	2	0.0	0.0	2	1.0	0.0
	2	0.0	0.0	2	1.0	0.0
	2	0.0	0.0	2	1.0	0.0
	2	0.0	0.0	2	1.0	0.0
	2	0.0	0.0	2	1.0	0.0
	2	0.0	0.0	2	1.0	0.0
	2	0.0	0.0	2	1.0	0.0
	2	0.0	0.0	2	1.0	0.0
	2	0.0	0.0	2	1.0	0.0
	2	0.0	0.0	2	1.0	0.0
	2	0.0	0.0	2	1.0	0.0
	2	0.0	0.0	2	1.0	0.0
	2	0.0	0.0	2	1.0	0.0
	2	0.0	0.0	2	1.0	0.0
	2	0.0	0.0	2	1.0	0.0
	2	0.0	0.0	2	1.0	0.0
	2	0.0	0.0	2	1.0	0.0
	2	0.0	0.0	2	1.0	0.0
	2	0.0	0.0	2	1.0	0.0
	2	0.0	0.0	2	1.0	0.0
	2	0.0	0.0	2	1.0	0.0
	2	0.0	0.0	2	1.0	0.0
	2	0.0	0.0	2	1.0	0.0
	2	0.0	0.0	2	1.0	0.0
	2	0.0	0.0	2	1.0	0.0
	2	0.0	0.0	2	1.0	0.0
	2	0.0	0.0	2	1.0	0.0
	2	0.0	0.0	2	1.0	0.0
	2	0.0	0.0	2	1.0	0.0
	2	0.0	0.0	2	1.0	0.0
	2	0.0	0.0	2	1.0	0.0
	2	0.0	0.0	2	1.0	0.0
	2	0.0	0.0	2	1.0	0.0
	2	0.0	0.0	2	1.0	0.0
	2	0.0	0.0	2	1.0	0.0
	2	0.0	0.0	2	1.0	0.0
	2	0.0	0.0	2	1.0	0.0
	2	0.0	0.0	2	1.0	0.0
	2	0.0	0.0	2	1.0	0.0
	2	0.0	0.0	2	1.0	0.0
	2	0.0	0.0	2	1.0	0.0
	2	0.0	0.0	2	1.0	0.0
	2	0.0	0.0	2	1.0	0.0
	2	0.0	0.0	2	1.0	0.0
	2	0.0	0.0	2	1.0	0.0
	2	0.0	0.0	2	1.0	0.0
	2	0.0	0.0	2	1.0	0.0
	2	0.0	0.0	2	1.0	0.0
	2	0.0	0.0	2	1.0	0.0
	2	0.0	0.0	2	1.0	0.0
	2	0.0	0.0	2	1.0	0.0
	2	0.0	0.0	2	1.0	0.0
	2	0.0	0.0	2	1.0	0.0
	2	0.0	0.0	2	1.0	0.0
	2	0.0	0.0	2	1.0	0.0
	2	0.0	0.0	2	1.0	0.0
	2	0.0	0.0	2	1.0	0.0
	2	0.0	0.0	2	1.0	0.0
	2	0.0	0.0	2	1.0	0.0
	2	0.0	0.0	2	1.0	0.0
	2	0.0	0.0	2	1.0	0.0
	2	0.0	0.0	2	1.0	0.0
	2	0.0	0.0	2	1.0	0.0
	2	0.0	0.0	2	1.0	0.0
	2	0.0	0.0	2	1.0	0.0
	2	0.0	0.0	2	1.0	0.0
	2	0.0	0.0	2	1.0	0.0
	2	0.0	0.0	2	1.0	0.0
	2	0.0	0.0	2	1.0	0.0
	2	0.0	0.0	2	1.0	0.0
	2	0.0	0.0	2	1.0	0.0
	2	0.0	0.0	2	1.0	0.0
	2	0.0	0.0	2	1.0	0.0
	2	0.0	0.0	2	1.0	0.0
	2	0.0	0.0	2	1.0	0.0
	2	0.0	0.0	2	1.0	0.0
	2	0.0	0.0	2	1.0	0.0
	2	0.0	0.0	2	1.0	0.0
	2	0.0	0.0	2	1.0	0.0
	2	0.0	0.0	2	1.0	0.0
	2	0.0	0.0	2	1.0	0.0
	2	0.0	0.0	2	1.0	0.0
	2	0.0	0.0	2	1.0	0.0
	2	0.0	0.0	2	1.0	0.0
	2	0.0	0.0	2	1.0	0.0
	2	0.0	0.0	2	1.0	0.0
	2	0.0	0.0	2	1.0	0.0
	2	0.0	0.0	2	1.0	0.0
	2	0.0	0.0	2	1.0	0.0
	2	0.0	0.0	2	1.0	0.0
	2	0.0	0.0	2	1.0	0.0
	2	0.0	0.0	2	1.0	0.0
	2	0.0	0.0	2	1.0	0.0
	2	0.0	0.0	2	1.0	0.0
	2	0.0	0.0	2	1.0	0.0
	2	0.0	0.0	2	1.0	0.0
	2	0.0	0.0	2	1.0	0.0
	2	0.0	0.0	2	1.0	0.0
	2	0.0	0.0	2	1.0	0.0
	2	0.0	0.0	2	1.0	0.0
	2	0.0	0.0	2	1.0	0.0
	2	0.0	0.0	2	1.0	0.0
	2	0.0	0.0	2	1.0	0.0
	2	0.0	0.0	2	1.0	0.0
	2	0.0	0.0	2	1.0	0.0
	2	0.0	0.0	2	1.0	0.0
	2	0.0	0.0	2	1.0	0.0
	2	0.0	0.0	2	1.0	0.0
	2	0.0	0.0	2	1.0	0.0
	2	0.0	0.0	2	1.0	0.0
	2	0.0	0.0	2	1.0	0.0
	2	0.0	0.0	2	1.0	0.0
	2	0.0	0.0	2	1.0	0.0
	2	0.0	0.0	2	1.0	0.0
	2	0.0	0.0	2	1.0	0.0
	2	0.0	0.0	2	1.0	0.0
	2	0.0	0.0	2	1.0	0.0
	2	0.0	0.0	2	1.0	0.0
	2	0.0	0.0	2	1.0	0.0
	2	0.0	0.0	2	1.0	0.0
	2	0.0	0.0	2	1.0	0.0
	2	0.0	0.0	2	1.0	0.0
	2	0.0	0.0	2	1.0	0.0
	2	0.0	0.0	2	1.0	0.0
	2	0.0	0.0	2	1.0	0.0
	2	0.0	0.0	2	1.0	0.0
	2	0.0	0.0	2	1.0	0.0
	2	0.0	0.0	2	1.0	0.0
	2	0.0	0.0	2	1.0	0.0
	2	0.0	0.0	2	1.0	0.0
	2	0.0	0.0	2	1.0	0.0
	2	0.0	0.0	2	1.0	0.0
	2	0.0	0.0	2	1.0	0.0
	2	0.0	0.0	2	1.0	0.0
	2	0.0	0.0	2	1.0	0.0
	2	0.0	0.0	2	1.0	0.0
	2	0.0	0.0	2	1.0	0.0
	2	0.0	0.0	2	1.0	0.0
	2	0.0	0.0	2	1.0	0.0
	2	0.0	0.0	2	1.0	0.0
	2	0.0	0.0	2	1.0	0.0
	2	0.0	0.0	2	1.0	0.0
	2	0.0	0.0	2	1.0	0.0
	2	0.0	0.0	2	1.0	0.0
	2	0.0	0.0	2	1.0	0.0
	2	0.0	0.0	2	1.0	0.0
	2	0.0	0.0	2	1.0	0.0
	2	0.0	0.0	2	1.0	0.0
	2	0.0	0.0	2	1.0	0.0
	2	0.0	0.0	2	1.0	0.0
	2	0.0	0.0	2	1.0	0.0
	2	0.0	0.0	2	1.0	0.0
	2	0.0	0.0	2	1.0	0.0
	2	0.0	0.0	2	1.0	0.0
	2	0.0	0.0	2	1.0	0.0
	2	0.0	0.0	2	1.0	0.0
	2	0.0	0.0	2	1.0	0.0
	2	0.0	0.0	2	1.0	0.0
	2	0.0	0.0	2	1.0	0.0
	2	0.0	0.0	2	1.0	0.0
	2	0.0	0.0	2	1.0	0.0
	2	0.0	0.0	2	1.0	0.0
	2	0.0	0.0	2	1.0	0.0
	2	0.0	0.0	2	1.0	0.0
	2	0.0	0.0	2	1.0	0.0
	2	0.0	0.0	2	1.0	0.0
	2	0.0	0.0	2	1.0	0.0
	2	0.0	0.0	2	1.0	0.0
	2	0.0	0.0	2	1.0	0.0
	2	0.0	0.0	2	1.0	0.0
	2	0.0	0.0	2	1.0	0.0
...
];

%%-----  OPF Data  -----%%
%% cost data
%    1    startup    shutdown    n    x1    y1    ...    xn    yn
%    2    startup    shutdown    n    c(n-1)    ...    c0
mpc.dclinecost = [
	2	0.0	0.0	2	0.0	0.0
	2	0.0	0.0	2	0.0	0.0
	2	0.0	0.0	2	0.0	0.0
	2	0.0	0.0	2	0.0	0.0
	2	0.0	0.0	2	0.0	0.0
	2	0.0	0.0	2	0.0	0.0
	2	0.0	0.0	2	0.0	0.0
	2	0.0	0.0	2	0.0	0.0
	2	0.0	0.0	2	0.0	0.0
	2	0.0	0.0	2	0.0	0.0
	2	0.0	0.0	2	0.0	0.0
	2	0.0	0.0	2	0.0	0.0
	2	0.0	0.0	2	0.0	0.0
	2	0.0	0.0	2	0.0	0.0
];

%% bus names
mpc.bus_name = {
	'ANGRA1UNE001'
	'ANGRA2UNE001'
	'LCBARRUHE004'
	'LCBARRSIN002'
	'FUNIL-UHE002'
	'FURNASUHE005'
	'FURNASSIN003'
	'ITUMBIUHE004'
	'ITUMBISIN002'
	'MARIMBUHE005'
	'MANSO-UHE004'
	'M.MORAUHE004'
	'M.MORBUHE003'
	'PCOLOMUHE003'
	'SCRU19UTE000'
	'SCRU13UTE000'
	'SCRU16UTE002'
	'CORUMBUHE002'
	'S.MESAUHE001'
	'S.MESASIN001'
	'GRAJA2SIN001'
	'VITOR2SIN001'
	'BAND-1CER345'
	'BAND-2CER345'
	'GRAJA1SIN001'
	'CAMPOSCER345'
	'VITOR1SIN001'
	'IBIUNASIN004'
	'TPRETOSIN001'
	'P.ACU--RJ345'
	'GNAIG-UTE000'
	'GNAIV-UTE000'
	'BALTO-CER230'
	'IVAIP3-PR069'
	'IVAIP2-PR069'
	'IVAIP2-PR000'
	'IVAIP3-PR000'
	'F.IGUA-PR765'
	'FZ-500-PR500'
	'IV-FZ1CAP765'
	'IV-FZ2CAP765'
	'IV-FZ3CAP765'
	'IVAIPO-PR765'
	'IVAIPA-PR525'
	'IVAIP1-PR069'
	'IVAIP1-PR000'
	'IV-IT1CAP765'
	'IV-IT2CAP765'
	'IV-IT3CAP765'
	'ITABER-SP765'
	'IT-TP1CAP765'
	'IT-TP2CAP765'
	'IT-TP3CAP765'
	'TPRETO-SP765'
	'TPRETO-SP500'
	'TPRETO-SP345'
	'TPRETO-SP069'
	'TPRET3-SP000'
	'TPRET4-SP000'
	'TPRET2-SP345'
	'RESEN2-RJ138'
	'FOZ500-PR500'
	'IBIUNA-SP345'
	'RESEND-RJ500'
	'VIANA--ES345'
	'VIANT1-ES013'
	'SB-SM1CAP500'
	'SB-SM2CAP500'
	'SB-SM3CAP500'
	'VIANT2-ES013'
	'VIANT3-ES013'
	'AS-AR1-SP500'
	'MARIMB-MG500'
	'ARARAQ-SP500'
	'P.CALD-MG500'
	'CAMPIN-SP500'
	'C.PAUL-SP500'
	'ANGRA--RJ500'
	'ADRIAN-RJ500'
	'GRAJAU-RJ500'
	'S.JOSE-RJ500'
	'BYPSAD-RJ500'
	'GR1T52-RJ000'
	'BA-IB1-PR500'
	'BA-IB2-PR500'
	'BA-IT1-PR500'
	'BA-IT1CAP500'
	'IMBTAP-RJ138'
	'BANDT4-GO000'
	'BANDT4-GO013'
	'P.CALD-MG345'
	'PCAT51-MG000'
	'IBIUNA-SP500'
	'CAMPIN-SP345'
	'CAMP51-SP000'
	'IB-BA1CAP500'
	'GUARUL-SP345'
	'MO-RL1-SP345'
	'MO-RL2-SP345'
	'MOGI---SP345'
	'IB-BA2CAP500'
	'M.MORA-MG345'
	'ADRT1A-RJ000'
	'LCBARR-SP345'
	'JACT1A-RJ000'
	'FURNAS-MG345'
	'JACT2A-RJ000'
	'ITUTIN-MG345'
	'ADRT51-RJ000'
	'ADRIAN-RJ345'
	'ADRT53-RJ000'
	'ADRT55-RJ000'
	'ADRT2B-RJ000'
	'JACARE-RJ345'
	'ADRT1B-RJ000'
	'ADRT2A-RJ000'
	'CAMPOS-RJ345'
	'CAMPO1-RJ000'
	'VITORI-ES345'
	'VITAT1-ES000'
	'VITAT2-ES000'
	'VITAT3-ES000'
	'VITAT2-ES013'
	'VITAT3-ES013'
	'VITAT4-ES013'
	'VITAT4-ES000'
	'JA-R30-RJ013'
	'JB-R60-RJ013'
	'MO-FCE-SP230'
	'CAMAT1-SP000'
	'CAMPI1-SP013'
	'PCAT02-MG000'
	'P.CAL2-MG013'
	'JACT1B-RJ000'
	'JA-R60-RJ013'
	'SJOSE2-RJ138'
	'P.CALD-MG138'
	'CAMPI1-SP138'
	'IMBARE-RJ138'
	'ADRIAN-RJ138'
	'R.LEAO-RJ138'
	'CAMPOS-RJ138'
	'CAMP54-SP000'
	'VITOR1-ES138'
	'GRAJAU-RJ138'
	'GR2T54-RJ000'
	'JACAR2-RJ138'
	'ANGDEF-RJ138'
	'FUNIL--RJ138'
	'C.PAUL-SP138'
	'S.CRUZ-RJ138'
	'ANGRA--RJ138'
	'CAMP54-SP013'
	'M.MORA-MG138'
	'BGERT1-DF000'
	'P.COL--MG138'
	'CAMPO1-RJ013'
	'ADRT55-RJ013'
	'ADRT53-RJ013'
	'CAMP51-SP013'
	'ADRT51-RJ013'
	'PCALAT-MG013'
	'VITAT1-ES013'
	'UCAMP1-RJ000'
	'RSIL-1UTE000'
	'UCAMP2-RJ000'
	'RSIL-2UTE000'
	'ADRT1B-RJ013'
	'ADRT2A-RJ013'
	'ADRT2B-RJ013'
	'BGERT1-DF013'
	'ADRT1A-RJ013'
	'ITUMBI-MG500'
	'CAMPO2-RJ000'
	'CAMPO2-RJ013'
	'MARIMB-MG345'
	'MARIMB-MG000'
	'P.COL--MG345'
	'ITUMBI-MG345'
	'BANDEI-GO345'
	'B.SUL--DF345'
	'CORUMB-GO345'
	'B.GERA-DF034'
	'BSULT6-DF000'
	'BANDT1-GO000'
	'BANDT2-GO000'
	'ITUMBI-MG230'
	'BANDEI-GO230'
	'B.GERA-DF230'
	'B.SUL--DF230'
	'B.ALTO-GO230'
	'S.MESA-GO230'
	'R.VERD-GO230'
	'BSULT6-DF013'
	'SAMAMB-DF500'
	'SAMAMB-DF345'
	'S.MESA-GO500'
	'B.SUL--DF138'
	'SAMAMB-DF138'
	'R.VERD-GO138'
...